Version 4
SHEET 1 4632 3248
WIRE -1312 -80 -1344 -80
WIRE -992 -80 -1232 -80
WIRE -1344 16 -1344 -80
WIRE -1264 16 -1344 16
WIRE -1136 16 -1200 16
WIRE 176 16 176 -16
WIRE 176 128 176 96
WIRE 560 128 176 128
WIRE -2496 144 -2608 144
WIRE -2032 144 -2144 144
WIRE -1520 144 -1552 144
WIRE -1488 144 -1520 144
WIRE -1344 144 -1344 16
WIRE -1344 144 -1408 144
WIRE -1264 144 -1344 144
WIRE -1136 160 -1136 16
WIRE -1136 160 -1200 160
WIRE -1088 160 -1136 160
WIRE -992 160 -992 -80
WIRE -992 160 -1024 160
WIRE -928 160 -992 160
WIRE -800 160 -848 160
WIRE -704 160 -800 160
WIRE -592 160 -624 160
WIRE -1264 176 -1296 176
WIRE 96 208 48 208
WIRE 176 208 176 128
WIRE 176 208 160 208
WIRE 208 208 176 208
WIRE 560 208 560 128
WIRE 560 208 528 208
WIRE -1296 240 -1296 176
WIRE 48 240 48 208
WIRE -1520 288 -1520 144
WIRE -1088 288 -1520 288
WIRE -800 288 -800 160
WIRE -800 288 -1008 288
WIRE -768 288 -800 288
WIRE -592 304 -592 160
WIRE -592 304 -704 304
WIRE -528 304 -592 304
WIRE -32 304 -144 304
WIRE 96 304 -32 304
WIRE 208 304 160 304
WIRE -768 320 -800 320
WIRE -32 320 -32 304
WIRE -2608 336 -2608 144
WIRE 2832 336 2832 304
WIRE -800 368 -800 320
WIRE 96 400 64 400
WIRE 208 400 160 400
WIRE 800 400 528 400
WIRE -32 432 -32 400
WIRE 64 432 64 400
WIRE 2832 464 2832 416
WIRE 3024 464 2832 464
WIRE 1408 480 1408 448
WIRE 208 496 160 496
WIRE 640 496 528 496
WIRE 2832 496 2832 464
WIRE 3024 496 3024 464
WIRE 160 528 160 496
WIRE -2608 544 -2608 416
WIRE -2144 544 -2144 144
WIRE 640 544 640 496
WIRE 1408 608 1408 560
WIRE 1600 608 1408 608
WIRE 2832 608 2832 576
WIRE 4224 624 4064 624
WIRE 1408 640 1408 608
WIRE 1600 640 1600 608
WIRE 640 672 640 624
WIRE 3024 672 3024 576
WIRE 3056 672 3024 672
WIRE 3168 672 3136 672
WIRE -2608 688 -2608 624
WIRE -2144 688 -2144 624
WIRE 1408 752 1408 720
WIRE 4160 752 4160 736
WIRE 1600 768 1600 720
WIRE 1808 768 1600 768
WIRE 1936 768 1888 768
WIRE 4224 784 4224 624
WIRE 2880 800 2832 800
WIRE 3024 800 3024 672
WIRE 3024 800 2960 800
WIRE 3056 800 3024 800
WIRE 3168 816 3168 672
WIRE 3168 816 3120 816
WIRE 3264 816 3168 816
WIRE 1600 832 1600 768
WIRE 1680 832 1600 832
WIRE 1776 832 1744 832
WIRE 3056 832 3024 832
WIRE 4000 848 3952 848
WIRE 4128 848 4080 848
WIRE 4528 848 4352 848
WIRE 3024 864 3024 832
WIRE 1600 912 1600 832
WIRE 1632 912 1600 912
WIRE 1776 912 1776 832
WIRE 1776 912 1696 912
WIRE 4192 960 4192 928
WIRE 4208 960 4192 960
WIRE 4224 960 4224 912
WIRE 4224 960 4208 960
WIRE 4256 960 4256 896
WIRE 4304 960 4256 960
WIRE 4448 960 4384 960
WIRE 4208 992 4208 960
WIRE 4448 992 4448 960
WIRE 512 1024 512 976
WIRE 544 1024 512 1024
WIRE 672 1024 624 1024
WIRE 800 1024 672 1024
WIRE 848 1024 800 1024
WIRE 960 1024 928 1024
WIRE 1472 1024 1424 1024
WIRE 1600 1024 1600 912
WIRE 1600 1024 1552 1024
WIRE 1632 1024 1600 1024
WIRE 4160 1024 4160 944
WIRE 1776 1040 1776 912
WIRE 1776 1040 1696 1040
WIRE 1824 1040 1776 1040
WIRE 1936 1040 1936 768
WIRE 1936 1040 1888 1040
WIRE 1984 1040 1936 1040
WIRE 2144 1040 2064 1040
WIRE 2224 1040 2144 1040
WIRE 960 1056 960 1024
WIRE 1632 1056 1600 1056
WIRE 2144 1072 2144 1040
WIRE 672 1088 672 1024
WIRE 800 1088 800 1024
WIRE 1600 1088 1600 1056
WIRE -2240 1104 -2240 1072
WIRE -2096 1104 -2096 1072
WIRE -1952 1104 -1952 1072
WIRE -1824 1104 -1824 1072
WIRE 4448 1104 4448 1072
WIRE 4160 1136 4160 1104
WIRE 400 1168 400 1136
WIRE 2144 1184 2144 1152
WIRE -2240 1232 -2240 1184
WIRE -2096 1232 -2096 1184
WIRE -1952 1232 -1952 1184
WIRE -1824 1232 -1824 1184
WIRE 288 1232 208 1232
WIRE 608 1232 512 1232
WIRE 672 1232 672 1168
WIRE 672 1232 608 1232
WIRE 864 1232 672 1232
WIRE 992 1248 928 1248
WIRE 1040 1248 992 1248
WIRE 800 1264 800 1168
WIRE 864 1264 800 1264
WIRE 608 1280 608 1232
WIRE 288 1328 208 1328
WIRE 544 1328 512 1328
WIRE 208 1360 208 1328
WIRE 800 1376 800 1264
WIRE 832 1376 800 1376
WIRE 960 1376 912 1376
WIRE 992 1376 992 1248
WIRE 992 1376 960 1376
WIRE 544 1392 544 1328
WIRE 608 1392 608 1360
WIRE 352 1424 352 1392
WIRE 448 1424 448 1392
WIRE 208 1456 208 1424
WIRE 800 1472 800 1376
WIRE 832 1472 800 1472
WIRE 960 1472 960 1376
WIRE 960 1472 896 1472
WIRE 608 1488 608 1456
FLAG -1552 144 INPUT
IOPIN -1552 144 In
FLAG -1232 128 V+
FLAG -1232 192 V-
FLAG -528 304 ABS
IOPIN -528 304 Out
FLAG -736 272 V+
FLAG -736 336 V-
FLAG -1296 240 0
FLAG -800 368 0
FLAG -2240 1232 0
FLAG -2096 1232 0
FLAG -1952 1232 0
FLAG -1824 1232 0
FLAG -1952 1072 Vdd
FLAG -1824 1072 Vss
FLAG -2240 1072 V+
FLAG -2096 1072 V-
FLAG -2032 144 INPUT
IOPIN -2032 144 Out
FLAG -2144 688 0
FLAG 448 1424 0
FLAG 400 1136 Vdd
FLAG 208 1456 0
FLAG 208 1232 ABS
IOPIN 208 1232 In
FLAG 1040 1248 RMS
IOPIN 1040 1248 Out
FLAG 960 1056 0
FLAG 512 976 Vdd
FLAG 896 1280 Vdd
FLAG 896 1216 Vss
FLAG 352 1424 Vss
FLAG 544 1392 0
FLAG 608 1488 0
FLAG 48 240 0
FLAG 160 528 0
FLAG -32 432 0
FLAG 64 432 0
FLAG 176 -16 Vdd
FLAG -144 304 ABS
IOPIN -144 304 In
FLAG 800 400 LOG
IOPIN 800 400 Out
FLAG 640 672 0
FLAG -2496 144 INPUT2
IOPIN -2496 144 Out
FLAG -2608 688 0
FLAG 1664 1008 V+
FLAG 1664 1072 V-
FLAG 1600 1088 0
FLAG 1424 1024 RMS
IOPIN 1424 1024 In
FLAG 2144 1184 0
FLAG 2224 1040 THRESHOLD
IOPIN 2224 1040 Out
FLAG 4160 736 V+
FLAG 4208 992 0
FLAG 4160 1136 V-
FLAG 4064 624 GAIN
IOPIN 4064 624 In
FLAG 4448 1104 0
FLAG 4528 848 VCA
IOPIN 4528 848 Out
FLAG 3888 848 INPUT
IOPIN 3888 848 In
FLAG 3024 864 0
FLAG 3088 784 V+
FLAG 3088 848 V-
FLAG 2832 304 V+
FLAG 1408 448 V+
FLAG 2832 608 V-
FLAG 1408 752 V-
FLAG 2832 800 THRESHOLD
IOPIN 2832 800 In
FLAG 3264 816 GAIN
IOPIN 3264 816 Out
SYMBOL OpAmps\\OP1177 -1232 96 R0
SYMATTR InstName U1
SYMBOL OpAmps\\OP1177 -736 240 R0
SYMATTR InstName U2
SYMBOL res -992 272 R90
WINDOW 0 0 56 VBottom 2
WINDOW 3 32 56 VTop 2
SYMATTR InstName R1
SYMATTR Value 20k
SYMBOL res -832 144 R90
WINDOW 0 0 56 VBottom 2
WINDOW 3 32 56 VTop 2
SYMATTR InstName R2
SYMATTR Value 10k
SYMBOL res -608 144 R90
WINDOW 0 0 56 VBottom 2
WINDOW 3 32 56 VTop 2
SYMATTR InstName R3
SYMATTR Value 20k
SYMATTR SpiceLine tol=1
SYMBOL res -1216 -96 R90
WINDOW 0 0 56 VBottom 2
WINDOW 3 32 56 VTop 2
SYMATTR InstName R4
SYMATTR Value 10k
SYMBOL diode -1024 144 R90
WINDOW 0 0 32 VBottom 2
WINDOW 3 32 32 VTop 2
SYMATTR InstName D1
SYMATTR Value 1N4148
SYMBOL diode -1200 0 R90
WINDOW 0 0 32 VBottom 2
WINDOW 3 32 32 VTop 2
SYMATTR InstName D2
SYMATTR Value 1N4148
SYMBOL res -1392 128 R90
WINDOW 0 0 56 VBottom 2
WINDOW 3 32 56 VTop 2
SYMATTR InstName R5
SYMATTR Value 10k
SYMBOL voltage -2240 1088 R0
WINDOW 123 0 0 Left 0
WINDOW 39 0 0 Left 0
SYMATTR InstName V1
SYMATTR Value 12
SYMBOL voltage -2096 1088 R0
WINDOW 123 0 0 Left 0
WINDOW 39 0 0 Left 0
SYMATTR InstName V2
SYMATTR Value -12
SYMBOL voltage -1952 1088 R0
WINDOW 123 0 0 Left 0
WINDOW 39 0 0 Left 0
SYMATTR InstName V3
SYMATTR Value 5
SYMBOL voltage -1824 1088 R0
WINDOW 123 0 0 Left 0
WINDOW 39 0 0 Left 0
SYMATTR InstName V4
SYMATTR Value -5
SYMBOL voltage -2144 528 R0
SYMATTR InstName V5
SYMATTR Value wavefile=lickpick.wav
SYMBOL SpecialFunctions\\LTC1966 400 1280 R0
SYMATTR InstName U9
SYMBOL cap 192 1360 R0
SYMATTR InstName C7
SYMATTR Value 0.1µ
SYMBOL OpAmps\\LT1494 896 1248 M180
SYMATTR InstName U12
SYMBOL res 656 1072 R0
SYMATTR InstName R29
SYMATTR Value 10Meg
SYMBOL res 784 1072 R0
SYMATTR InstName R30
SYMATTR Value 10Meg
SYMBOL res 928 1360 R90
WINDOW 0 0 56 VBottom 2
WINDOW 3 32 56 VTop 2
SYMATTR InstName R31
SYMATTR Value 84.5k
SYMBOL cap 896 1456 R90
WINDOW 0 0 32 VBottom 2
WINDOW 3 32 32 VTop 2
SYMATTR InstName C11
SYMATTR Value 100p
SYMBOL res 944 1008 R90
WINDOW 0 0 56 VBottom 2
WINDOW 3 32 56 VTop 2
SYMATTR InstName R32
SYMATTR Value 750k
SYMBOL res 640 1008 R90
WINDOW 0 0 56 VBottom 2
WINDOW 3 32 56 VTop 2
SYMATTR InstName R33
SYMATTR Value 10Meg
SYMBOL res 592 1264 R0
SYMATTR InstName Attack
SYMATTR Value 0
SYMBOL cap 592 1392 R0
SYMATTR InstName C10
SYMATTR Value 1µ
SYMBOL OpAmps\\AD8310 368 352 R0
SYMATTR InstName U3
SYMBOL cap 160 288 R90
WINDOW 0 0 32 VBottom 2
WINDOW 3 32 32 VTop 2
SYMATTR InstName C1
SYMATTR Value 0.01µ
SYMBOL cap 160 384 R90
WINDOW 0 0 32 VBottom 2
WINDOW 3 32 32 VTop 2
SYMATTR InstName C2
SYMATTR Value 0.01µ
SYMBOL cap 160 192 R90
WINDOW 0 0 32 VBottom 2
WINDOW 3 32 32 VTop 2
SYMATTR InstName C3
SYMATTR Value 0.01µ
SYMBOL res -48 304 R0
SYMATTR InstName R6
SYMATTR Value 52.3
SYMBOL res 160 0 R0
SYMATTR InstName R7
SYMATTR Value 4.7
SYMBOL voltage 640 528 R0
WINDOW 123 0 0 Left 0
WINDOW 39 0 0 Left 0
SYMATTR InstName V6
SYMATTR Value 1.9
SYMBOL voltage -2608 528 R0
SYMATTR InstName V7
SYMATTR Value wavefile=lickpick.wav
SYMBOL bv -2608 320 R0
SYMATTR InstName B2
SYMATTR Value V=(white(2e6*time)/100)
SYMBOL OpAmps\\OP1177 1664 976 R0
SYMATTR InstName U4
SYMBOL diode 1696 896 R90
WINDOW 0 0 32 VBottom 2
WINDOW 3 32 32 VTop 2
SYMATTR InstName D3
SYMATTR Value 1N4148
SYMBOL diode 1888 1024 R90
WINDOW 0 0 32 VBottom 2
WINDOW 3 32 32 VTop 2
SYMATTR InstName D4
SYMATTR Value 1N4148
SYMBOL cap 1744 816 R90
WINDOW 0 0 32 VBottom 2
WINDOW 3 32 32 VTop 2
SYMATTR InstName C4
SYMATTR Value 22p
SYMBOL res 1904 752 R90
WINDOW 0 0 56 VBottom 2
WINDOW 3 32 56 VTop 2
SYMATTR InstName R8
SYMATTR Value 2k
SYMBOL res 1568 1008 R90
WINDOW 0 0 56 VBottom 2
WINDOW 3 32 56 VTop 2
SYMATTR InstName R9
SYMATTR Value 2k
SYMBOL res 1584 624 R0
SYMATTR InstName R10
SYMATTR Value 162k
SYMBOL res 2080 1024 R90
WINDOW 0 0 56 VBottom 2
WINDOW 3 32 56 VTop 2
SYMATTR InstName R11
SYMATTR Value 500
SYMBOL res 2160 1168 R180
WINDOW 0 36 76 Left 2
WINDOW 3 36 40 Left 2
SYMATTR InstName R12
SYMATTR Value 500
SYMBOL THAT2181A 4224 848 R0
SYMATTR InstName THAT1
SYMATTR Prefix X
SYMATTR Value THAT2181A
SYMBOL res 4144 1008 R0
SYMATTR InstName R13
SYMATTR Value 5.1k
SYMBOL res 4096 832 R90
WINDOW 0 0 56 VBottom 2
WINDOW 3 32 56 VTop 2
SYMATTR InstName R14
SYMATTR Value 2k
SYMBOL cap 3888 832 M90
WINDOW 0 0 32 VBottom 2
WINDOW 3 32 32 VTop 2
SYMATTR InstName C5
SYMATTR Value 10µ
SYMBOL res 4400 944 R90
WINDOW 0 0 56 VBottom 2
WINDOW 3 32 56 VTop 2
SYMATTR InstName R15
SYMATTR Value 680k
SYMBOL voltage 4448 976 R0
WINDOW 123 0 0 Left 0
WINDOW 39 0 0 Left 0
SYMATTR InstName V8
SYMATTR Value 4
SYMBOL res 1392 624 R0
SYMATTR InstName R16
SYMATTR Value 10k
SYMBOL res 1392 464 R0
SYMATTR InstName R17
SYMATTR Value 40k
SYMBOL OpAmps\\OP1177 3088 752 R0
SYMATTR InstName U5
SYMBOL res 2976 784 R90
WINDOW 0 0 56 VBottom 2
WINDOW 3 32 56 VTop 2
SYMATTR InstName R18
SYMATTR Value 2k
SYMBOL res 3152 656 R90
WINDOW 0 0 56 VBottom 2
WINDOW 3 32 56 VTop 2
SYMATTR InstName R19
SYMATTR Value 2k
SYMBOL res 3008 480 R0
SYMATTR InstName R22
SYMATTR Value 243k
SYMBOL res 2816 480 R0
SYMATTR InstName R23
SYMATTR Value 25k
SYMBOL res 2816 320 R0
SYMATTR InstName R24
SYMATTR Value 25k
TEXT -2248 1392 Left 2 !.SUBCKT THAT2181A  1   2   3   4   5   6   7   8 \n*(lin, Ec+, Ec-, Sym, Vee, GND, Vcc, Iout)\nR1         10 13  2.5k  \nR2         10 14  2.5k  \nI1         10 29 DC 50uA  \nR3         11 7  8k  \nR4         12 7  8k  \nG1         7 15 11 12 1.25e-4\nR5         0 15  10MEG  \nR6         0 16  10k  \nC1         16 15  10p  \nR7         19 7  2k  \nG2         19 20 15 0 5e-4\nC2         19 7  8p  \nE1         20 28 30 0 2\nR8         5 29  1.7k  \nV1         0 29 DC 2.1V  \nI2         0 30 DC 20uA  \nR9         4 2  27  \nC3         20 0  12p  \nI3         20 28 DC 220uA  \nV2         18 0 DC .7V  \nV3         17 15 DC 1.4V  \nQ1         11 1 13 QNHIB \nQ2         12 9 14 QNHIB \nQ3         20 21 23 QNPNNOM \nQ4         20 22 24 QNPNNOM \nQ5         8 4 27 QNPNNOM \nQ6         1 25 26 QNPNNOM \nQ7         1 2 23 QPNPNOM \nQ8         8 3 24 QPNPNOM \nQ9         28 28 27 QPNPNOM \nQ10        28 28 26 QPNPNOM \nQ11        28 29 5 QNPNNOM \nQ12        30 30 31 QNPNNOM \nQ13        0 0 31 QPNPNOM \nD1         18 15 DNOM \nD2         17 7 DNOM \nR10        3 25  22  \nR11        22 20 22  \nR12        21 20 27  \nVos        9 6 DC 3mV  \n.model qnpnnom npn (is=1e-15 bf=200, vaf=110, cjc=3pF)\n.model qpnpnom pnp (is=1e-15 bf=100, vaf=85, cjc=5pf)\n.model qnhib npn (bf=16000)\n.model dnom d (is=1e-15)\n.ENDS
TEXT -2640 776 Left 2 !.tran 250m
