Version 4
SHEET 1 1252 680
WIRE 976 -208 976 -240
WIRE -832 -96 -832 -128
WIRE -688 -96 -688 -128
WIRE 240 -80 64 -80
WIRE 288 -80 240 -80
WIRE 416 -80 384 -80
WIRE 560 -80 416 -80
WIRE 736 -80 656 -80
WIRE 976 -80 976 -128
WIRE 976 -80 736 -80
WIRE 736 -32 736 -80
WIRE 336 0 336 -16
WIRE 240 16 240 -80
WIRE -832 32 -832 -16
WIRE -688 32 -688 -16
WIRE 976 48 976 -80
WIRE 976 48 944 48
WIRE 416 64 416 -80
WIRE 464 64 416 64
WIRE 736 64 736 32
WIRE 736 64 544 64
WIRE 880 64 736 64
WIRE 992 80 944 80
WIRE 1024 80 992 80
WIRE 1136 80 1104 80
WIRE -288 96 -288 64
WIRE -48 112 -96 112
WIRE 64 112 64 -80
WIRE 64 112 32 112
WIRE 96 112 64 112
WIRE 240 128 240 80
WIRE 240 128 160 128
WIRE 288 128 240 128
WIRE 352 128 288 128
WIRE 608 128 608 -16
WIRE 608 128 432 128
WIRE 96 144 64 144
WIRE 608 176 608 128
WIRE 992 192 992 80
WIRE 1024 192 992 192
WIRE 1136 192 1136 80
WIRE 1136 192 1088 192
WIRE -720 208 -912 208
WIRE 1136 224 1136 192
WIRE -912 240 -912 208
WIRE -528 240 -576 240
WIRE -288 240 -288 176
WIRE -224 240 -288 240
WIRE -96 240 -144 240
WIRE -48 240 -96 240
WIRE 64 240 64 144
WIRE 64 240 32 240
WIRE 288 256 288 128
WIRE 336 256 288 256
WIRE -720 272 -800 272
WIRE -288 304 -288 240
WIRE -96 304 -96 240
WIRE 608 304 608 256
WIRE -800 336 -800 272
WIRE -720 336 -720 304
WIRE -912 352 -912 320
WIRE -288 416 -288 384
WIRE -96 416 -96 384
WIRE -800 448 -800 416
FLAG -832 32 0
FLAG -688 32 0
FLAG -832 -128 V+
FLAG -688 -128 V-
FLAG 128 96 V+
FLAG 128 160 V-
FLAG 912 32 V+
FLAG 912 96 V-
FLAG 336 0 0
FLAG 608 304 0
FLAG 1136 224 0
FLAG 336 256 Output
IOPIN 336 256 Out
FLAG -96 416 0
FLAG -288 416 V-
FLAG -288 64 V+
FLAG -96 112 Ein
IOPIN -96 112 In
FLAG -528 240 Ein
IOPIN -528 240 Out
FLAG 976 -240 V+
FLAG -720 336 0
FLAG -800 448 0
FLAG -912 352 0
SYMBOL OpAmps\\OP1177 128 64 R0
SYMATTR InstName U1
SYMBOL voltage -832 -112 R0
WINDOW 123 0 0 Left 0
WINDOW 39 0 0 Left 0
SYMATTR InstName V1
SYMATTR Value 12
SYMBOL voltage -688 -112 R0
WINDOW 123 0 0 Left 0
WINDOW 39 0 0 Left 0
SYMATTR InstName V2
SYMATTR Value -12
SYMBOL OpAmps\\OP1177 912 0 M0
SYMATTR InstName U2
SYMBOL res 448 112 R90
WINDOW 0 0 56 VBottom 2
WINDOW 3 32 56 VTop 2
SYMATTR InstName R1
SYMATTR Value 15.7k
SYMBOL res 560 48 R90
WINDOW 0 0 56 VBottom 2
WINDOW 3 32 56 VTop 2
SYMATTR InstName R2
SYMATTR Value 2k
SYMBOL cap 224 16 R0
SYMATTR InstName C1
SYMATTR Value 300p
SYMBOL npn 288 -16 R270
SYMATTR InstName Q1
SYMBOL npn 656 -16 M270
SYMATTR InstName Q2
SYMBOL cap 720 -32 R0
SYMATTR InstName C2
SYMATTR Value 20p
SYMBOL cap 1088 176 R90
WINDOW 0 0 32 VBottom 2
WINDOW 3 32 32 VTop 2
SYMATTR InstName C4
SYMATTR Value 0.01µ
SYMBOL res 1120 64 R90
WINDOW 0 0 56 VBottom 2
WINDOW 3 32 56 VTop 2
SYMATTR InstName R3
SYMATTR Value 1.5Meg
SYMBOL res 992 -112 R180
WINDOW 0 36 76 Left 2
WINDOW 3 36 40 Left 2
SYMATTR InstName R4
SYMATTR Value 1.5Meg
SYMBOL res -64 128 R270
WINDOW 0 32 56 VTop 2
WINDOW 3 0 56 VBottom 2
SYMATTR InstName R5
SYMATTR Value 10k
SYMBOL res 592 160 R0
SYMATTR InstName R6
SYMATTR Value 1k
SYMBOL res 48 224 R90
WINDOW 0 0 56 VBottom 2
WINDOW 3 32 56 VTop 2
SYMATTR InstName R7
SYMATTR Value 10k
SYMBOL res -128 224 R90
WINDOW 0 0 56 VBottom 2
WINDOW 3 32 56 VTop 2
SYMATTR InstName R8
SYMATTR Value 1Meg
SYMBOL res -80 400 R180
WINDOW 0 36 76 Left 2
WINDOW 3 36 40 Left 2
SYMATTR InstName R9
SYMATTR Value 1k
SYMBOL res -304 288 R0
SYMATTR InstName R10
SYMATTR Value 50k
SYMBOL res -304 80 R0
SYMATTR InstName R11
SYMATTR Value 50k
SYMBOL SpecialFunctions\\modulate -720 208 R0
WINDOW 3 0 0 Invisible 0
SYMATTR InstName A1
SYMATTR Value mark=1k space .1k
SYMBOL voltage -800 320 R0
WINDOW 123 0 0 Left 0
WINDOW 39 0 0 Left 0
SYMATTR InstName V3
SYMATTR Value PULSE(0 1 0 0.5m 0.5m 1p 1p)
SYMBOL voltage -912 224 R0
WINDOW 3 -210 49 Left 2
WINDOW 123 0 0 Left 0
WINDOW 39 0 0 Left 0
SYMATTR InstName V4
SYMATTR Value SINE(0 1 1k)
TEXT -1124 490 Left 2 !.tran 1
