Version 4
SHEET 1 1952 1028
WIRE 1264 336 1216 336
WIRE 1376 336 1344 336
WIRE 1408 336 1376 336
WIRE 1520 336 1488 336
WIRE 1440 496 1440 480
WIRE 1376 512 1376 336
WIRE 1408 512 1376 512
WIRE 1520 528 1520 336
WIRE 1520 528 1472 528
WIRE 1616 528 1520 528
WIRE 1808 528 1696 528
WIRE 560 544 352 544
WIRE 704 544 640 544
WIRE 928 544 704 544
WIRE 976 544 928 544
WIRE 1200 544 976 544
WIRE 1328 544 1200 544
WIRE 1408 544 1328 544
WIRE 928 576 928 544
WIRE 1200 576 1200 544
WIRE 1440 624 1440 560
WIRE 816 656 816 624
WIRE 1088 656 1088 624
WIRE 704 672 704 544
WIRE 784 672 704 672
WIRE 976 672 976 544
WIRE 1056 672 976 672
WIRE 80 688 80 640
WIRE 208 688 208 640
WIRE 352 688 352 544
WIRE 928 688 928 640
WIRE 928 688 848 688
WIRE 1200 688 1200 640
WIRE 1200 688 1120 688
WIRE 784 704 672 704
WIRE 1056 704 976 704
WIRE 1328 704 1328 544
WIRE 1568 704 1328 704
WIRE 672 736 672 704
WIRE 816 768 816 720
WIRE 1088 768 1088 720
WIRE 80 816 80 768
WIRE 208 816 208 768
WIRE 672 832 672 816
WIRE 352 864 352 768
WIRE 976 880 976 704
WIRE 976 880 848 880
WIRE 848 912 848 880
WIRE 848 1008 848 992
FLAG 1216 336 0
FLAG 1440 480 +15V
FLAG 1440 624 -15V
FLAG 1568 704 full_rect_log_min_thr_clip2
IOPIN 1568 704 Out
FLAG 1088 624 +15V
FLAG 1088 768 -15V
FLAG 816 624 +15V
FLAG 816 768 -15V
FLAG 352 864 0
FLAG 848 1008 0
FLAG 672 832 0
FLAG 80 640 -15V
FLAG 208 640 +15V
FLAG 80 816 0
FLAG 208 816 0
SYMBOL res 1504 320 R90
WINDOW 0 0 56 VBottom 2
WINDOW 3 32 56 VTop 2
SYMATTR InstName R1
SYMATTR Value 30.808k
SYMBOL res 1360 320 R90
WINDOW 0 0 56 VBottom 2
WINDOW 3 32 56 VTop 2
SYMATTR InstName R2
SYMATTR Value 1k
SYMBOL OpAmps\\LT1217 1440 464 R0
SYMATTR InstName U1
SYMBOL diode 1216 640 R180
WINDOW 0 24 64 Left 2
WINDOW 3 -49 5 Left 2
SYMATTR InstName D1
SYMATTR Value 1N4148
SYMBOL Opamps\\LTC6244 1088 688 R0
SYMATTR InstName U2
SYMBOL diode 912 576 R0
SYMATTR InstName D2
SYMATTR Value 1N4148
SYMBOL Opamps\\LTC6244 816 688 R0
SYMATTR InstName U3
SYMBOL res 656 528 R90
WINDOW 0 0 56 VBottom 2
WINDOW 3 32 56 VTop 2
SYMATTR InstName R3
SYMATTR Value 1k
SYMBOL res 1712 512 R90
WINDOW 0 0 56 VBottom 2
WINDOW 3 32 56 VTop 2
SYMATTR InstName R4
SYMATTR Value 250
SYMBOL star\ sign -64 544 R0
SYMATTR InstName X1
SYMATTR Prefix X
SYMBOL voltage 352 672 R0
WINDOW 123 0 0 Left 0
WINDOW 39 0 0 Left 0
SYMATTR InstName V1
SYMATTR Value SINE(0 1 1k)
SYMBOL voltage 672 720 R0
WINDOW 123 0 0 Left 0
WINDOW 39 0 0 Left 0
SYMATTR InstName V2
SYMATTR Value -0.5
SYMBOL voltage 848 896 R0
WINDOW 123 0 0 Left 0
WINDOW 39 0 0 Left 0
SYMATTR InstName V3
SYMATTR Value 0.2
SYMBOL voltage 208 672 R0
WINDOW 123 0 0 Left 0
WINDOW 39 0 0 Left 0
SYMATTR InstName V4
SYMATTR Value 5
SYMBOL voltage 80 672 R0
WINDOW 123 0 0 Left 0
WINDOW 39 0 0 Left 0
SYMATTR InstName V5
SYMATTR Value -5
SYMBOL OpAmps\\LT6238 848 -256 R0
SYMATTR InstName U4
SYMBOL OpAmps\\LT6238 1168 -256 R0
SYMATTR InstName U5
TEXT 48 216 Left 5 ;SIGNAL(dB) - THRESHOLD(dB) STAGE
TEXT 392 496 Left 2 ;here we clip signal under -kw/2 and above kw/2 0V is threshold
TEXT 256 376 Left 2 ;bw is the threshold bandwidth for soft/hard knee application
TEXT -98 956 Left 2 !.tran 10m
