Version 4
SHEET 1 21492 10440
WIRE 672 -2752 640 -2752
WIRE 1568 -2752 1424 -2752
WIRE 2304 -2736 2304 -2768
WIRE 2480 -2736 2480 -2768
WIRE 640 -2688 640 -2752
WIRE 1424 -2688 1424 -2752
WIRE 2304 -2608 2304 -2656
WIRE 2480 -2608 2480 -2656
WIRE 10128 -2592 10096 -2592
WIRE 10240 -2592 10208 -2592
WIRE 640 -2576 640 -2608
WIRE 1424 -2544 1424 -2608
WIRE 11888 -2496 11744 -2496
WIRE 9648 -2464 9648 -2544
WIRE 11360 -2464 11360 -2512
WIRE 12368 -2464 12320 -2464
WIRE 12496 -2464 12448 -2464
WIRE 672 -2448 640 -2448
WIRE 10176 -2432 10176 -2464
WIRE 2304 -2416 2304 -2464
WIRE 2464 -2416 2464 -2464
WIRE 9760 -2416 9680 -2416
WIRE 9872 -2416 9760 -2416
WIRE 9968 -2416 9872 -2416
WIRE 10096 -2416 10096 -2592
WIRE 10096 -2416 10048 -2416
WIRE 10144 -2416 10096 -2416
WIRE 10240 -2400 10240 -2592
WIRE 10240 -2400 10208 -2400
WIRE 10352 -2400 10240 -2400
WIRE 12032 -2400 11984 -2400
WIRE 640 -2384 640 -2448
WIRE 7264 -2384 7120 -2384
WIRE 9872 -2384 9872 -2416
WIRE 10144 -2384 10096 -2384
WIRE 11568 -2368 11504 -2368
WIRE 6752 -2352 6752 -2400
WIRE 7520 -2352 7440 -2352
WIRE 7680 -2352 7584 -2352
WIRE 10096 -2352 10096 -2384
WIRE 11360 -2336 11360 -2384
WIRE 11824 -2336 11824 -2368
WIRE 11744 -2320 11744 -2496
WIRE 11792 -2320 11744 -2320
WIRE 12400 -2320 12400 -2352
WIRE 2304 -2304 2304 -2336
WIRE 2464 -2304 2464 -2336
WIRE 10176 -2304 10176 -2368
WIRE 11888 -2304 11888 -2496
WIRE 11888 -2304 11856 -2304
WIRE 11984 -2304 11984 -2400
WIRE 11984 -2304 11888 -2304
WIRE 12048 -2304 11984 -2304
WIRE 12160 -2304 12048 -2304
WIRE 12320 -2304 12320 -2464
WIRE 12320 -2304 12240 -2304
WIRE 12368 -2304 12320 -2304
WIRE 9648 -2288 9648 -2368
WIRE 9872 -2288 9872 -2320
WIRE 11504 -2288 11504 -2368
WIRE 11504 -2288 11392 -2288
WIRE 11664 -2288 11504 -2288
WIRE 11792 -2288 11664 -2288
WIRE 12496 -2288 12496 -2464
WIRE 12496 -2288 12432 -2288
WIRE 12688 -2288 12496 -2288
WIRE 640 -2272 640 -2304
WIRE 12368 -2272 12288 -2272
WIRE 11664 -2256 11664 -2288
WIRE 6960 -2240 6896 -2240
WIRE 6752 -2224 6752 -2272
WIRE 7200 -2224 7200 -2256
WIRE 7120 -2208 7120 -2384
WIRE 7168 -2208 7120 -2208
WIRE 7552 -2208 7552 -2240
WIRE 11824 -2208 11824 -2272
WIRE 7264 -2192 7264 -2384
WIRE 7264 -2192 7232 -2192
WIRE 7312 -2192 7264 -2192
WIRE 7440 -2192 7440 -2352
WIRE 7440 -2192 7392 -2192
WIRE 7520 -2192 7440 -2192
WIRE 10240 -2192 10096 -2192
WIRE 12400 -2192 12400 -2256
WIRE 768 -2176 640 -2176
WIRE 6896 -2176 6896 -2240
WIRE 6896 -2176 6784 -2176
WIRE 7088 -2176 6896 -2176
WIRE 7168 -2176 7088 -2176
WIRE 7680 -2176 7680 -2352
WIRE 7680 -2176 7584 -2176
WIRE 7792 -2176 7680 -2176
WIRE 12288 -2176 12288 -2272
WIRE 2304 -2160 2304 -2192
WIRE 7520 -2160 7504 -2160
WIRE 11360 -2160 11360 -2240
WIRE 11664 -2160 11664 -2192
WIRE 2480 -2144 2480 -2192
WIRE 9760 -2144 9760 -2416
WIRE 9936 -2144 9760 -2144
WIRE 1632 -2128 1424 -2128
WIRE 7088 -2128 7088 -2176
WIRE 7504 -2128 7504 -2160
WIRE 640 -2096 640 -2176
WIRE 7200 -2096 7200 -2160
WIRE 1424 -2080 1424 -2128
WIRE 7552 -2080 7552 -2144
WIRE 10176 -2064 10176 -2096
WIRE 6752 -2048 6752 -2128
WIRE 10096 -2048 10096 -2192
WIRE 10144 -2048 10096 -2048
WIRE 2304 -2032 2304 -2080
WIRE 2480 -2032 2480 -2064
WIRE 10240 -2032 10240 -2192
WIRE 10240 -2032 10208 -2032
WIRE 10288 -2032 10240 -2032
WIRE 7088 -2016 7088 -2064
WIRE 9760 -2016 9760 -2144
WIRE 10144 -2016 9760 -2016
WIRE 640 -1984 640 -2016
WIRE 12368 -1984 12320 -1984
WIRE 12496 -1984 12448 -1984
WIRE 1424 -1936 1424 -2000
WIRE 10176 -1936 10176 -2000
WIRE 0 -1840 -32 -1840
WIRE 656 -1840 624 -1840
WIRE 12400 -1840 12400 -1872
WIRE 12048 -1824 12048 -2304
WIRE 12160 -1824 12048 -1824
WIRE 12320 -1824 12320 -1984
WIRE 12320 -1824 12240 -1824
WIRE 12368 -1824 12320 -1824
WIRE 12496 -1808 12496 -1984
WIRE 12496 -1808 12432 -1808
WIRE 12560 -1808 12496 -1808
WIRE 12368 -1792 12288 -1792
WIRE -32 -1776 -32 -1840
WIRE 624 -1776 624 -1840
WIRE 12400 -1712 12400 -1776
WIRE 12288 -1696 12288 -1792
WIRE -32 -1664 -32 -1696
WIRE 624 -1664 624 -1696
WIRE 11856 -720 11760 -720
WIRE 12976 -608 12832 -608
WIRE 13328 -608 13184 -608
WIRE 11968 -592 11920 -592
WIRE 12080 -592 12048 -592
WIRE 12112 -592 12080 -592
WIRE 12240 -592 12192 -592
WIRE 13632 -592 13600 -592
WIRE 13744 -592 13712 -592
WIRE 4384 -576 4336 -576
WIRE 4496 -576 4464 -576
WIRE 4576 -576 4496 -576
WIRE 4720 -576 4656 -576
WIRE 14160 -544 14128 -544
WIRE 14272 -544 14240 -544
WIRE 11920 -528 11920 -592
WIRE 4336 -512 4336 -576
WIRE 13872 -496 13808 -496
WIRE 12912 -448 12912 -480
WIRE 13264 -448 13264 -480
WIRE 12160 -432 12160 -448
WIRE 12832 -432 12832 -608
WIRE 12880 -432 12832 -432
WIRE 13184 -432 13184 -608
WIRE 13232 -432 13184 -432
WIRE 13680 -432 13680 -464
WIRE 4608 -416 4608 -448
WIRE 12080 -416 12080 -592
WIRE 12128 -416 12080 -416
WIRE 12976 -416 12976 -608
WIRE 12976 -416 12944 -416
WIRE 13328 -416 13328 -608
WIRE 13328 -416 13296 -416
WIRE 13376 -416 13328 -416
WIRE 13424 -416 13376 -416
WIRE 13600 -416 13600 -592
WIRE 13600 -416 13504 -416
WIRE 13648 -416 13600 -416
WIRE 14208 -416 14208 -432
WIRE 4496 -400 4496 -576
WIRE 4576 -400 4496 -400
WIRE 12240 -400 12240 -592
WIRE 12240 -400 12192 -400
WIRE 12352 -400 12240 -400
WIRE 12528 -400 12432 -400
WIRE 12704 -400 12592 -400
WIRE 12832 -400 12704 -400
WIRE 12880 -400 12832 -400
WIRE 12976 -400 12976 -416
WIRE 13024 -400 12976 -400
WIRE 13152 -400 13104 -400
WIRE 13232 -400 13152 -400
WIRE 13744 -400 13744 -592
WIRE 13744 -400 13712 -400
WIRE 13808 -400 13808 -496
WIRE 13808 -400 13744 -400
WIRE 13968 -400 13808 -400
WIRE 14128 -400 14128 -544
WIRE 14128 -400 14048 -400
WIRE 14176 -400 14128 -400
WIRE 4720 -384 4720 -576
WIRE 4720 -384 4640 -384
WIRE 9856 -384 4720 -384
WIRE 11552 -384 9856 -384
WIRE 11728 -384 11632 -384
WIRE 11760 -384 11760 -720
WIRE 11760 -384 11728 -384
WIRE 11952 -384 11760 -384
WIRE 12128 -384 11952 -384
WIRE 13648 -384 13600 -384
WIRE 14272 -384 14272 -544
WIRE 14272 -384 14240 -384
WIRE 14384 -384 14272 -384
WIRE 4384 -368 4304 -368
WIRE 4496 -368 4464 -368
WIRE 4576 -368 4496 -368
WIRE 12704 -368 12704 -400
WIRE 14176 -368 14128 -368
WIRE 11952 -352 11952 -384
WIRE 12832 -352 12832 -400
WIRE 13152 -352 13152 -400
WIRE 13600 -352 13600 -384
WIRE 14128 -336 14128 -368
WIRE 12912 -320 12912 -384
WIRE 13264 -320 13264 -384
WIRE 12160 -304 12160 -368
WIRE 13680 -304 13680 -368
WIRE 4608 -288 4608 -352
WIRE 14208 -288 14208 -352
WIRE 4240 -272 4096 -272
WIRE 4496 -272 4496 -368
WIRE 4496 -272 4320 -272
WIRE 11840 -272 11840 -304
WIRE 11728 -256 11728 -384
WIRE 11808 -256 11728 -256
WIRE 12704 -256 12704 -288
WIRE 12832 -256 12832 -288
WIRE 13152 -256 13152 -288
WIRE 13376 -256 13376 -416
WIRE 13392 -256 13376 -256
WIRE 11952 -240 11952 -288
WIRE 11952 -240 11872 -240
WIRE 11808 -224 11728 -224
WIRE 9856 -192 9856 -384
WIRE 9984 -192 9856 -192
WIRE 11728 -192 11728 -224
WIRE 11840 -160 11840 -208
WIRE 20512 -160 20464 -160
WIRE 20992 -160 20944 -160
WIRE 21104 -160 21056 -160
WIRE 20512 -128 20512 -160
WIRE -896 -112 -960 -112
WIRE -576 -112 -816 -112
WIRE 2240 -112 2144 -112
WIRE 2368 -112 2304 -112
WIRE 16240 -80 16192 -80
WIRE 16464 -80 16240 -80
WIRE 17808 -64 17760 -64
WIRE 17920 -64 17888 -64
WIRE 18000 -64 17920 -64
WIRE 18144 -64 18080 -64
WIRE 20944 -64 20944 -160
WIRE 20944 -64 20864 -64
WIRE 20992 -64 20944 -64
WIRE 21104 -64 21104 -160
WIRE 21104 -64 21072 -64
WIRE 21152 -64 21104 -64
WIRE -1232 -32 -1376 -32
WIRE -960 -32 -960 -112
WIRE -896 -32 -960 -32
WIRE -720 -32 -832 -32
WIRE -320 -32 -368 -32
WIRE -208 -32 -240 -32
WIRE -1760 -16 -1824 -16
WIRE -1648 -16 -1680 -16
WIRE -1616 -16 -1648 -16
WIRE -1504 -16 -1536 -16
WIRE 18528 -16 18496 -16
WIRE 18640 -16 18608 -16
WIRE -208 0 -208 -32
WIRE -176 0 -208 0
WIRE -1824 16 -1824 -16
WIRE 2144 16 2144 -112
WIRE 2224 16 2144 16
WIRE 2368 16 2368 -112
WIRE 2368 16 2304 16
WIRE 16240 16 16240 -80
WIRE 20512 16 20512 -48
WIRE 20512 16 20480 16
WIRE 336 32 112 32
WIRE 560 32 400 32
WIRE 20096 32 20016 32
WIRE 20224 32 20160 32
WIRE 20416 32 20304 32
WIRE 20688 48 20480 48
WIRE 20416 64 20336 64
WIRE 20688 64 20688 48
WIRE 20336 80 20336 64
WIRE 20576 80 20480 80
WIRE 18032 96 18032 64
WIRE 20416 96 20224 96
WIRE 20976 96 20976 48
WIRE -1824 112 -1888 112
WIRE 17920 112 17920 -64
WIRE 18000 112 17920 112
WIRE 18576 112 18576 96
WIRE 20864 112 20864 -64
WIRE 20864 112 20480 112
WIRE 20944 112 20864 112
WIRE -1296 128 -1296 96
WIRE 18144 128 18144 -64
WIRE 18144 128 18064 128
WIRE 18384 128 18144 128
WIRE 18496 128 18496 -16
WIRE 18496 128 18464 128
WIRE 18544 128 18496 128
WIRE 21152 128 21152 -64
WIRE 21152 128 21008 128
WIRE 21280 128 21152 128
WIRE 21312 128 21280 128
WIRE -1568 144 -1568 112
WIRE -1376 144 -1376 -32
WIRE -1328 144 -1376 144
WIRE -848 144 -848 112
WIRE -288 144 -288 112
WIRE 16240 144 16240 96
WIRE 17808 144 17680 144
WIRE 17920 144 17888 144
WIRE 18000 144 17920 144
WIRE 18640 144 18640 -16
WIRE 18640 144 18608 144
WIRE 18736 144 18640 144
WIRE 20944 144 20816 144
WIRE -1648 160 -1648 -16
WIRE -1600 160 -1648 160
WIRE -1232 160 -1232 -32
WIRE -1232 160 -1264 160
WIRE -1136 160 -1232 160
WIRE -1104 160 -1136 160
WIRE -960 160 -960 -32
WIRE -960 160 -1024 160
WIRE -880 160 -960 160
WIRE -368 160 -368 -32
WIRE -320 160 -368 160
WIRE 18544 160 18496 160
WIRE 20816 160 20816 144
WIRE -1504 176 -1504 -16
WIRE -1504 176 -1536 176
WIRE -1328 176 -1504 176
WIRE -720 176 -720 -32
WIRE -720 176 -816 176
WIRE -672 176 -720 176
WIRE -576 176 -576 -112
WIRE -576 176 -608 176
WIRE -528 176 -576 176
WIRE -368 176 -368 160
WIRE -368 176 -448 176
WIRE -208 176 -208 0
WIRE -208 176 -256 176
WIRE 336 176 336 144
WIRE 2256 176 2256 144
WIRE 16976 176 16688 176
WIRE 21280 176 21280 128
WIRE -2048 192 -2128 192
WIRE -1888 192 -1888 112
WIRE -1888 192 -1984 192
WIRE -1696 192 -1888 192
WIRE -1600 192 -1696 192
WIRE -880 192 -896 192
WIRE -320 192 -336 192
WIRE -208 192 -208 176
WIRE -32 192 -208 192
WIRE 112 192 112 32
WIRE 112 192 48 192
WIRE 304 192 112 192
WIRE 2032 192 1888 192
WIRE 2144 192 2144 16
WIRE 2144 192 2112 192
WIRE 2224 192 2144 192
WIRE 16496 192 16496 96
WIRE 16528 192 16496 192
WIRE 18496 192 18496 160
WIRE -3216 208 -3280 208
WIRE 560 208 560 32
WIRE 560 208 368 208
WIRE 880 208 560 208
WIRE 2368 208 2368 16
WIRE 2368 208 2288 208
WIRE 2480 208 2368 208
WIRE 16720 208 16720 96
WIRE 16720 208 16688 208
WIRE -1696 224 -1696 192
WIRE -896 224 -896 192
WIRE -336 224 -336 192
WIRE 304 224 288 224
WIRE 2224 224 2144 224
WIRE 16528 224 16208 224
WIRE 18032 224 18032 160
WIRE 16720 240 16688 240
WIRE 16928 240 16800 240
WIRE 18576 240 18576 176
WIRE 20976 240 20976 160
WIRE -1296 256 -1296 192
WIRE 288 256 288 224
WIRE 16464 256 16464 -80
WIRE 16528 256 16464 256
WIRE -1568 272 -1568 208
WIRE -848 272 -848 208
WIRE -288 272 -288 208
WIRE 16928 272 16688 272
WIRE 17168 272 16928 272
WIRE 17440 272 17168 272
WIRE 17920 272 17920 144
WIRE 17920 272 17520 272
WIRE 20816 272 20816 240
WIRE -3280 288 -3280 208
WIRE 16368 288 16320 288
WIRE 16528 288 16448 288
WIRE 336 304 336 240
WIRE 2256 304 2256 240
WIRE 16768 304 16688 304
WIRE 21280 304 21280 256
WIRE 16320 320 16320 288
WIRE 16528 320 16320 320
WIRE -1696 336 -1696 304
WIRE 2032 336 2000 336
WIRE 2144 336 2144 224
WIRE 2144 336 2112 336
WIRE 16720 336 16688 336
WIRE 16800 336 16720 336
WIRE 16928 336 16928 272
WIRE 16928 336 16880 336
WIRE 16240 352 16240 336
WIRE 2144 368 2144 336
WIRE 2272 368 2144 368
WIRE 7952 368 7872 368
WIRE 17168 368 17168 272
WIRE 17264 368 17168 368
WIRE -1136 384 -1136 160
WIRE -896 384 -1136 384
WIRE -368 384 -368 176
WIRE -368 384 -816 384
WIRE 2144 400 2144 368
WIRE 2272 400 2272 368
WIRE 16768 400 16768 304
WIRE -3280 432 -3280 368
WIRE 8288 448 8240 448
WIRE 8416 448 8352 448
WIRE 16720 448 16720 336
WIRE 7952 464 7952 448
WIRE 2144 496 2144 480
WIRE 2272 496 2272 464
WIRE 2272 496 2144 496
WIRE 9600 496 9488 496
WIRE 16976 496 16976 176
WIRE 17072 496 16976 496
WIRE 17232 496 17072 496
WIRE 8784 512 8736 512
WIRE 8896 512 8864 512
WIRE 8976 512 8896 512
WIRE 9120 512 9056 512
WIRE 16608 528 16608 496
WIRE 8240 544 8240 448
WIRE 8272 544 8240 544
WIRE 8416 544 8416 448
WIRE 8416 544 8352 544
WIRE 12544 544 12400 544
WIRE 2144 560 2144 496
WIRE 7872 560 7872 368
WIRE 7872 560 7792 560
WIRE 8000 560 7872 560
WIRE 11360 560 11312 560
WIRE 11488 560 11440 560
WIRE 17072 560 17072 496
WIRE 17232 560 17232 496
WIRE 12912 576 12864 576
WIRE 13040 576 12992 576
WIRE 14864 576 14720 576
WIRE 16720 576 16720 528
WIRE 16720 576 16640 576
WIRE 12208 592 11712 592
WIRE 16720 608 16720 576
WIRE 7792 624 7792 560
WIRE 8000 624 8000 560
WIRE 9248 624 9200 624
WIRE 10144 624 9840 624
WIRE 17376 624 17376 576
WIRE 6192 640 6048 640
WIRE 9520 640 9520 624
WIRE 9648 640 9648 544
WIRE 9680 640 9648 640
WIRE 4928 656 4880 656
WIRE 5040 656 5008 656
WIRE 5072 656 5040 656
WIRE 5184 656 5152 656
WIRE 8560 656 8512 656
WIRE 9872 656 9872 544
WIRE 9872 656 9840 656
WIRE 7472 672 7424 672
WIRE 7600 672 7552 672
WIRE 9008 672 9008 640
WIRE 9600 672 9600 496
WIRE 9680 672 9600 672
WIRE 16608 672 16608 624
WIRE 17072 672 17072 640
WIRE 17232 672 17232 640
WIRE 17344 672 17232 672
WIRE 8320 688 8320 656
WIRE 8896 688 8896 512
WIRE 8976 688 8896 688
WIRE 9872 688 9840 688
WIRE 10080 688 9952 688
WIRE 8240 704 8240 544
WIRE 8288 704 8240 704
WIRE 9120 704 9120 512
WIRE 9120 704 9040 704
WIRE 9200 704 9200 624
WIRE 9200 704 9120 704
WIRE 9312 704 9200 704
WIRE 9680 704 9312 704
WIRE 11392 704 11392 672
WIRE 12480 704 12480 672
WIRE 14800 704 14800 672
WIRE 16720 704 16720 672
WIRE 7792 720 7792 704
WIRE 8032 720 7792 720
WIRE 8240 720 8240 704
WIRE 8240 720 8112 720
WIRE 8416 720 8416 544
WIRE 8416 720 8352 720
WIRE 8512 720 8512 656
WIRE 8512 720 8416 720
WIRE 8768 720 8512 720
WIRE 8896 720 8848 720
WIRE 8976 720 8896 720
WIRE 10080 720 9840 720
WIRE 10304 720 10080 720
WIRE 11120 720 11024 720
WIRE 11312 720 11312 560
WIRE 11312 720 11200 720
WIRE 11360 720 11312 720
WIRE 11984 720 11984 704
WIRE 12400 720 12400 544
WIRE 12448 720 12400 720
WIRE 12944 720 12944 688
WIRE 14720 720 14720 576
WIRE 14768 720 14720 720
WIRE 17232 720 17232 672
WIRE 8288 736 8256 736
WIRE 9520 736 9472 736
WIRE 9680 736 9600 736
WIRE 11488 736 11488 560
WIRE 11488 736 11424 736
WIRE 11536 736 11488 736
WIRE 11600 736 11536 736
WIRE 11712 736 11712 592
WIRE 11712 736 11664 736
WIRE 11776 736 11712 736
WIRE 11952 736 11856 736
WIRE 12544 736 12544 544
WIRE 12544 736 12512 736
WIRE 12656 736 12544 736
WIRE 12864 736 12864 576
WIRE 12864 736 12736 736
WIRE 12912 736 12864 736
WIRE 14864 736 14864 576
WIRE 14864 736 14832 736
WIRE 14928 736 14864 736
WIRE 9920 752 9840 752
WIRE 11360 752 11280 752
WIRE 12096 752 12016 752
WIRE 12208 752 12208 592
WIRE 12208 752 12160 752
WIRE 12352 752 12208 752
WIRE 12448 752 12352 752
WIRE 13040 752 13040 576
WIRE 13040 752 12976 752
WIRE 13120 752 13040 752
WIRE 14192 752 14064 752
WIRE 14448 752 14272 752
WIRE 14672 752 14448 752
WIRE 14768 752 14672 752
WIRE 17376 752 17376 720
WIRE 8000 768 8000 704
WIRE 8112 768 8000 768
WIRE 8256 768 8256 736
WIRE 8256 768 8192 768
WIRE 9472 768 9472 736
WIRE 9680 768 9472 768
WIRE 11952 768 11904 768
WIRE 12912 768 12864 768
WIRE 9872 784 9840 784
WIRE 9952 784 9872 784
WIRE 10080 784 10080 720
WIRE 10080 784 10032 784
WIRE 14672 784 14672 752
WIRE 6128 800 6128 768
WIRE 7792 800 7792 720
WIRE 8000 800 8000 768
WIRE 9008 800 9008 736
WIRE 9312 800 9312 704
WIRE 10144 800 10144 624
WIRE 10304 800 10144 800
WIRE 5104 816 5104 800
WIRE 6048 816 6048 640
WIRE 6096 816 6048 816
WIRE 7504 816 7504 784
WIRE 8320 816 8320 752
WIRE 12864 816 12864 768
WIRE 17232 816 17232 784
WIRE 5040 832 5040 656
WIRE 5072 832 5040 832
WIRE 6192 832 6192 640
WIRE 6192 832 6160 832
WIRE 6272 832 6192 832
WIRE 7264 832 7184 832
WIRE 7424 832 7424 672
WIRE 7424 832 7344 832
WIRE 7472 832 7424 832
WIRE 11392 832 11392 768
WIRE 12480 832 12480 768
WIRE 14800 832 14800 768
WIRE 5184 848 5184 656
WIRE 5184 848 5136 848
WIRE 5280 848 5184 848
WIRE 5888 848 5360 848
WIRE 6016 848 5968 848
WIRE 6096 848 6016 848
WIRE 7600 848 7600 672
WIRE 7600 848 7536 848
WIRE 7728 848 7600 848
WIRE 8096 848 8064 848
WIRE 8160 848 8096 848
WIRE 8256 848 8256 768
WIRE 8256 848 8240 848
WIRE 9920 848 9920 752
WIRE 11280 848 11280 752
WIRE 11904 848 11904 768
WIRE 11904 848 11840 848
WIRE 11984 848 11984 784
WIRE 12944 848 12944 784
WIRE 4224 864 3936 864
WIRE 4368 864 4304 864
WIRE 4592 864 4368 864
WIRE 4640 864 4592 864
WIRE 4864 864 4640 864
WIRE 4992 864 4864 864
WIRE 5072 864 4992 864
WIRE 7472 864 7392 864
WIRE 10144 864 10144 800
WIRE 10304 864 10304 800
WIRE 14560 864 14560 832
WIRE 14448 880 14448 752
WIRE 14528 880 14448 880
WIRE 4592 896 4592 864
WIRE 4864 896 4864 864
WIRE 6016 896 6016 848
WIRE 7888 896 7792 896
WIRE 8000 896 7888 896
WIRE 8096 896 8096 848
WIRE 8256 896 8256 848
WIRE 9872 896 9872 784
WIRE 14672 896 14672 848
WIRE 14672 896 14592 896
WIRE 8720 912 8688 912
WIRE 8896 912 8896 720
WIRE 8896 912 8800 912
WIRE 14528 912 14448 912
WIRE 6128 928 6128 864
WIRE 9312 928 9312 880
WIRE 10400 928 10400 880
WIRE 12352 928 12352 752
WIRE 12416 928 12352 928
WIRE 5104 944 5104 880
WIRE 7504 944 7504 880
WIRE 7392 960 7392 864
WIRE 7888 960 7888 896
WIRE 11536 960 11536 736
WIRE 11584 960 11536 960
WIRE 4480 976 4480 944
WIRE 4752 976 4752 944
WIRE 9760 976 9760 944
WIRE 10144 976 10144 944
WIRE 10304 976 10304 944
WIRE 10368 976 10304 976
WIRE 14448 976 14448 912
WIRE 14560 976 14560 928
WIRE 4368 992 4368 864
WIRE 4448 992 4368 992
WIRE 4640 992 4640 864
WIRE 4720 992 4640 992
WIRE 6016 992 6016 960
WIRE 8256 992 8256 960
WIRE 4592 1008 4592 960
WIRE 4592 1008 4512 1008
WIRE 4864 1008 4864 960
WIRE 4864 1008 4784 1008
WIRE 4448 1024 4304 1024
WIRE 4720 1024 4640 1024
WIRE 4992 1024 4992 864
WIRE 5232 1024 4992 1024
WIRE 9872 1024 9872 976
WIRE 9872 1024 9792 1024
WIRE 10304 1024 10304 976
WIRE 9872 1056 9872 1024
WIRE 10400 1056 10400 1024
WIRE 4480 1088 4480 1040
WIRE 4752 1088 4752 1040
WIRE 7888 1104 7888 1040
WIRE 9760 1120 9760 1072
WIRE 10304 1120 10304 1088
WIRE 9872 1152 9872 1120
WIRE 4640 1200 4640 1024
WIRE 4640 1200 4496 1200
FLAG 2304 -2608 0
FLAG 2480 -2608 0
FLAG -1824 16 0
FLAG 2304 -2768 +15V
FLAG 2480 -2768 -15V
FLAG -1568 112 +15V
FLAG -1568 272 -15V
FLAG -3280 432 0
FLAG 640 -2272 0
FLAG 672 -2448 1V
IOPIN 672 -2448 Out
FLAG -896 224 0
FLAG -336 224 0
FLAG -176 0 full_rect
IOPIN -176 0 Out
FLAG -848 112 +15V
FLAG -848 272 -15V
FLAG -288 112 +15V
FLAG -288 272 -15V
FLAG 880 208 full_rect_log
IOPIN 880 208 Out
FLAG 288 256 0
FLAG 336 144 +15V
FLAG 336 304 -15V
FLAG 640 -2576 0
FLAG 672 -2752 1Vramp
IOPIN 672 -2752 Out
FLAG -1296 96 +15V
FLAG -1296 256 -15V
FLAG 7504 -2128 0
FLAG 7552 -2240 +15V
FLAG 7552 -2080 -15V
FLAG 6752 -2048 0
FLAG 6752 -2400 +15V
FLAG 7952 464 0
FLAG 7888 1104 0
FLAG 8096 896 0
FLAG 8560 656 tanh_out
IOPIN 8560 656 Out
FLAG 2144 560 0
FLAG 2256 144 +15V
FLAG 2256 304 -15V
FLAG 2480 208 full_rect_log_min_thr
IOPIN 2480 208 Out
FLAG 8320 656 +15V
FLAG 8320 816 -15V
FLAG 2000 336 thr_log
IOPIN 2000 336 In
FLAG 7200 -2256 +15V
FLAG 7200 -2096 -15V
FLAG 12832 -256 0
FLAG 13392 -256 peak_AR
IOPIN 13392 -256 Out
FLAG 13872 -496 gain_before_ratio
IOPIN 13872 -496 Out
FLAG 13680 -464 +15V
FLAG 13680 -304 -15V
FLAG 7792 -2176 thr_log
IOPIN 7792 -2176 Out
FLAG 14384 -384 gain_before_ratio_inv
IOPIN 14384 -384 Out
FLAG 1424 -2544 0
FLAG 1568 -2752 1Vmod
IOPIN 1568 -2752 Out
FLAG 16768 400 0
FLAG 16192 -80 gain_before_ratio_inv
IOPIN 16192 -80 In
FLAG 16928 240 0
FLAG 17264 368 gain_after_ratio
IOPIN 17264 368 Out
FLAG 17232 816 0
FLAG 16720 704 0
FLAG 16496 96 +5V
FLAG 16720 96 -5V
FLAG 2304 -2304 0
FLAG 2464 -2304 0
FLAG 2304 -2464 +5V
FLAG 2464 -2464 -5V
FLAG 14208 -432 +15V
FLAG 14208 -288 -15V
FLAG 17680 144 gain_before_ratio
IOPIN 17680 144 In
FLAG 14128 -336 0
FLAG 18032 64 +15V
FLAG 18032 224 -15V
FLAG 17760 -64 0
FLAG 20016 32 signal_in
IOPIN 20016 32 In
FLAG 21312 128 final
IOPIN 21312 128 Out
FLAG 21280 304 0
FLAG 20816 272 0
FLAG 20688 64 0
FLAG 20224 96 gain_final
IOPIN 20224 96 In
FLAG 18736 144 gain_final
IOPIN 18736 144 Out
FLAG -3216 208 signal_in
IOPIN -3216 208 Out
FLAG 11584 960 tanh_out_gain_inv
IOPIN 11584 960 Out
FLAG 7504 784 +15V
FLAG 7504 944 -15V
FLAG 7392 960 0
FLAG 11984 704 +15V
FLAG 11984 848 -15V
FLAG 12416 928 tanh_out_clamp
IOPIN 12416 928 Out
FLAG 12032 -2400 vratio_buf
IOPIN 12032 -2400 Out
FLAG 13120 752 tanh_out_clamp2
IOPIN 13120 752 Out
FLAG 12400 -2352 +15V
FLAG 12400 -2192 -15V
FLAG 12288 -2176 0
FLAG 12480 672 +15V
FLAG 12480 832 -15V
FLAG 16208 224 tanh_out_clamp2_clip_buf
IOPIN 16208 224 In
FLAG 7184 832 peak_AR_buf_tanh
IOPIN 7184 832 In
FLAG 640 -1984 0
FLAG 768 -2176 gain_reduction
IOPIN 768 -2176 Out
FLAG 1424 -1936 0
FLAG 1632 -2128 final_norm
IOPIN 1632 -2128 Out
FLAG 11360 -2160 0
FLAG 11360 -2512 -15V
FLAG 6960 -2240 lin_thr
IOPIN 6960 -2240 Out
FLAG 11824 -2368 +15V
FLAG 11824 -2208 -15V
FLAG 11568 -2368 vratio
IOPIN 11568 -2368 Out
FLAG 12688 -2288 vratio_buf_inv
IOPIN 12688 -2288 Out
FLAG 16240 352 0
FLAG 17072 672 0
FLAG 624 -1664 0
FLAG 656 -1840 1Vsquare
IOPIN 656 -1840 Out
FLAG 11840 -304 +15V
FLAG 11840 -160 -15V
FLAG 6272 832 peak_AR_buf_tanh
IOPIN 6272 832 Out
FLAG 13600 -352 0
FLAG 11920 -528 0
FLAG 4880 656 0
FLAG 14064 752 tanh_out_clamp2
IOPIN 14064 752 In
FLAG 14560 832 +15V
FLAG 14560 976 -15V
FLAG 14928 736 tanh_out_clamp2_clip_buf
IOPIN 14928 736 Out
FLAG 14800 672 +15V
FLAG 14800 832 -15V
FLAG 11392 672 +15V
FLAG 11392 832 -15V
FLAG 11280 848 0
FLAG 12944 688 +15V
FLAG 12944 848 -15V
FLAG 18576 96 +15V
FLAG 18576 240 -15V
FLAG 18496 192 0
FLAG 12160 -448 +15V
FLAG 12160 -304 -15V
FLAG 5104 800 +15V
FLAG 5104 944 -15V
FLAG 7088 -2016 0
FLAG 8256 992 0
FLAG 11664 -2160 0
FLAG -1696 336 0
FLAG 16240 144 0
FLAG 16608 496 +5V
FLAG 16608 672 -5V
FLAG 17376 752 +5V
FLAG 17376 576 -5V
FLAG -1824 112 signal_in_ac
IOPIN -1824 112 Out
FLAG 9920 848 0
FLAG 10080 688 0
FLAG 10304 720 tanh_norm
IOPIN 10304 720 Out
FLAG 10304 1120 0
FLAG 9872 1152 0
FLAG 9648 544 +5V
FLAG 9872 544 -5V
FLAG 9520 640 0
FLAG 10144 976 0
FLAG 9312 928 0
FLAG 9760 944 +5V
FLAG 9760 1120 -5V
FLAG 10400 1056 +5V
FLAG 10400 880 -5V
FLAG 9488 496 vratio_buf_sym
IOPIN 9488 496 In
FLAG 11024 720 tanh_norm
IOPIN 11024 720 In
FLAG 2480 -2032 0
FLAG 2480 -2192 -0.5V
FLAG 12400 -1872 +15V
FLAG 12400 -1712 -15V
FLAG 12288 -1696 -0.5V
FLAG 12560 -1808 vratio_buf_sym
IOPIN 12560 -1808 Out
FLAG 12864 816 0
FLAG 14448 976 0
FLAG 9008 640 +15V
FLAG 9008 800 -15V
FLAG 8688 912 -0.5V
IOPIN 8688 912 In
FLAG 8736 512 0
FLAG 9248 624 tanh_out_shift
IOPIN 9248 624 Out
FLAG 5232 1024 full_rect_log_min_thr_clip2
IOPIN 5232 1024 Out
FLAG 4752 944 +15V
FLAG 4752 1088 -15V
FLAG 4480 944 +15V
FLAG 4480 1088 -15V
FLAG -32 -1664 0
FLAG 0 -1840 1Vpulse
IOPIN 0 -1840 Out
FLAG 13264 -480 +15V
FLAG 13264 -320 -15V
FLAG 11856 -720 full_rect_log_min_thr_clip
IOPIN 11856 -720 Out
FLAG 11728 -192 0
FLAG 20576 80 +15V
FLAG 20464 -160 -15V
FLAG 9648 -2288 0
FLAG 9648 -2544 -0.5V
FLAG 10176 -2464 +15V
FLAG 10176 -2304 -15V
FLAG 9936 -2144 vhalf_kw
IOPIN 9936 -2144 Out
FLAG 9872 -2288 0
FLAG 10096 -2352 0
FLAG 10352 -2400 vhalf_kw_inv
IOPIN 10352 -2400 Out
FLAG 4496 1200 vhalf_kw
IOPIN 4496 1200 In
FLAG 4304 1024 vhalf_kw_inv
IOPIN 4304 1024 In
FLAG 4608 -448 +15V
FLAG 4608 -288 -15V
FLAG 4336 -512 0
FLAG 4096 -272 vhalf_kw_inv
IOPIN 4096 -272 In
FLAG 9984 -192 full_rect_log_min_thr_min_half_kw
IOPIN 9984 -192 Out
FLAG 20976 48 +15V
FLAG 20976 240 -15V
FLAG 4304 -368 full_rect_log_min_thr
IOPIN 4304 -368 In
FLAG 3936 864 full_rect_log_min_thr
IOPIN 3936 864 In
FLAG 12704 -256 0
FLAG 12912 -480 +15V
FLAG 12912 -320 -15V
FLAG 13152 -256 0
FLAG 6128 768 +15V
FLAG 6128 928 -15V
FLAG 6016 992 0
FLAG 2304 -2032 0
FLAG 2304 -2192 4dBu
FLAG 10176 -2096 +15V
FLAG 10176 -1936 -15V
FLAG 10288 -2032 vhalf_kw_buf
IOPIN 10288 -2032 Out
FLAG 1888 192 full_rect_log
IOPIN 1888 192 In
FLAG 11840 848 vratio_buf_inv
IOPIN 11840 848 In
FLAG -2128 192 signal_in
IOPIN -2128 192 In
FLAG 20336 80 0
SYMBOL voltage 2304 -2752 R0
WINDOW 123 0 0 Left 0
WINDOW 39 0 0 Left 0
SYMATTR InstName V2
SYMATTR Value +15V
SYMBOL voltage 2480 -2752 R0
WINDOW 123 0 0 Left 0
WINDOW 39 0 0 Left 0
SYMATTR InstName V3
SYMATTR Value -15V
SYMBOL res -1520 -32 R90
WINDOW 0 0 56 VBottom 2
WINDOW 3 32 56 VTop 2
SYMATTR InstName R1
SYMATTR Value 47.6K
SYMBOL res -1664 -32 R90
WINDOW 0 0 56 VBottom 2
WINDOW 3 32 56 VTop 2
SYMATTR InstName R2
SYMATTR Value 10K
SYMBOL TL072 -1568 112 R0
SYMATTR InstName U1
SYMBOL bv -3280 272 R0
WINDOW 3 42 45 Left 2
SYMATTR Value V=1.414*0.775*(10**({dBu_level}/20))*V(1V)
SYMATTR InstName B1
SYMBOL voltage 640 -2400 R0
WINDOW 123 0 0 Left 0
WINDOW 39 0 0 Left 0
SYMATTR InstName V4
SYMATTR Value SINE(0 1 {freq})
SYMBOL res -1008 144 R90
WINDOW 0 0 56 VBottom 2
WINDOW 3 32 56 VTop 2
SYMATTR InstName R3
SYMATTR Value 6.8K
SYMBOL res -800 -128 R90
WINDOW 0 0 56 VBottom 2
WINDOW 3 32 56 VTop 2
SYMATTR InstName R4
SYMATTR Value 6.8K
SYMBOL diode -832 -48 R90
WINDOW 0 0 32 VBottom 2
WINDOW 3 32 32 VTop 2
SYMATTR InstName D1
SYMATTR Value 1N4148
SYMBOL diode -608 160 R90
WINDOW 0 0 32 VBottom 2
WINDOW 3 32 32 VTop 2
SYMATTR InstName D2
SYMATTR Value 1N4148
SYMBOL res -800 368 R90
WINDOW 0 0 56 VBottom 2
WINDOW 3 32 56 VTop 2
SYMATTR InstName R5
SYMATTR Value 6.8K
SYMBOL res -432 160 R90
WINDOW 0 0 56 VBottom 2
WINDOW 3 32 56 VTop 2
SYMATTR InstName R6
SYMATTR Value 3.4K
SYMBOL res -224 -48 R90
WINDOW 0 0 56 VBottom 2
WINDOW 3 32 56 VTop 2
SYMATTR InstName R7
SYMATTR Value 6.8K
SYMBOL res 64 176 R90
WINDOW 0 0 56 VBottom 2
WINDOW 3 32 56 VTop 2
SYMATTR InstName R8
SYMATTR Value 4.2k
SYMBOL TL072 336 144 R0
SYMATTR InstName U4
SYMBOL voltage 640 -2704 R0
WINDOW 123 0 0 Left 0
WINDOW 39 0 0 Left 0
SYMATTR InstName V5
SYMATTR Value PULSE(-1 1 0 {1/(2*freq)} {1/(2*freq)} 0 {1/freq})
SYMBOL TL072 -1296 96 R0
SYMATTR InstName U5
SYMBOL OpAmps\\LTC6244 -848 176 R0
SYMATTR InstName U2
SYMBOL OpAmps\\LTC6244 -288 176 R0
SYMATTR InstName U3
SYMBOL res 7408 -2208 R90
WINDOW 0 0 56 VBottom 2
WINDOW 3 32 56 VTop 2
SYMATTR InstName R9
SYMATTR Value 4.2k
SYMBOL TL072 7552 -2240 R0
SYMATTR InstName U6
SYMBOL pot 6752 -2176 R180
SYMATTR InstName U8
SYMATTR Value2 T={threshold}
SYMATTR Prefix X
SYMATTR SpiceModel pot
SYMBOL res 6736 -2368 R0
SYMATTR InstName R10
SYMATTR Value 5k
SYMBOL res 7776 608 R0
SYMATTR InstName R11
SYMATTR Value 2K
SYMBOL res 7984 608 R0
SYMATTR InstName R12
SYMATTR Value 2K
SYMBOL npn 7728 800 R0
SYMATTR InstName Q1
SYMATTR Value 2N3904
SYMBOL npn 8064 800 M0
SYMATTR InstName Q2
SYMATTR Value 2N3904
SYMBOL voltage 7952 352 R0
WINDOW 123 0 0 Left 0
WINDOW 39 0 0 Left 0
SYMATTR InstName V6
SYMATTR Value 5V
SYMBOL current 7888 960 R0
WINDOW 123 0 0 Left 0
WINDOW 39 0 0 Left 0
SYMATTR InstName I1
SYMATTR Value 255.9µ
SYMBOL res 8208 752 R90
WINDOW 0 0 56 VBottom 2
WINDOW 3 32 56 VTop 2
SYMATTR InstName R13
SYMATTR Value 100K
SYMBOL res 8256 832 R90
WINDOW 0 0 56 VBottom 2
WINDOW 3 32 56 VTop 2
SYMATTR InstName R14
SYMATTR Value 100K
SYMBOL res 8128 704 R90
WINDOW 0 0 56 VBottom 2
WINDOW 3 32 56 VTop 2
SYMATTR InstName R15
SYMATTR Value 100K
SYMBOL res 8368 528 R90
WINDOW 0 0 56 VBottom 2
WINDOW 3 32 56 VTop 2
SYMATTR InstName R16
SYMATTR Value 100K
SYMBOL res 2128 176 R90
WINDOW 0 0 56 VBottom 2
WINDOW 3 32 56 VTop 2
SYMATTR InstName R17
SYMATTR Value 10K
SYMBOL res 2128 384 R0
SYMATTR InstName R18
SYMATTR Value 10K
SYMBOL res 2128 320 R90
WINDOW 0 0 56 VBottom 2
WINDOW 3 32 56 VTop 2
SYMATTR InstName R19
SYMATTR Value 10K
SYMBOL res 2320 0 R90
WINDOW 0 0 56 VBottom 2
WINDOW 3 32 56 VTop 2
SYMATTR InstName R20
SYMATTR Value 10K
SYMBOL TL072 2256 144 R0
SYMATTR InstName U10
SYMBOL TL072 8320 656 R0
SYMATTR InstName U9
SYMBOL cap 8352 432 R90
WINDOW 0 0 32 VBottom 2
WINDOW 3 32 32 VTop 2
SYMATTR InstName C3
SYMATTR Value 0.2n
SYMATTR SpiceLine V=25 Rser=0.2
SYMBOL TL072 7200 -2256 R0
SYMATTR InstName U13
SYMBOL cap 2304 -128 R90
WINDOW 0 0 32 VBottom 2
WINDOW 3 32 32 VTop 2
SYMATTR InstName C4
SYMATTR Value 0.3n
SYMATTR SpiceLine V=50 Irms=0 Rser=0.1 Lser=0
SYMBOL cap 12816 -352 R0
SYMATTR InstName C5
SYMATTR Value 0.1µ
SYMATTR SpiceLine V=10 Irms=0 Rser=0.003 Lser=0
SYMBOL TL072 13680 -464 R0
SYMATTR InstName U15
SYMBOL bv 1424 -2704 R0
SYMATTR InstName B2
SYMATTR Value V=V(1V)*sin({modfreq}*2*pi*time)
SYMBOL res 16464 272 R90
WINDOW 0 0 56 VBottom 2
WINDOW 3 32 56 VTop 2
SYMATTR InstName R41
SYMATTR Value 1k
SYMBOL res 16896 320 R90
WINDOW 0 0 56 VBottom 2
WINDOW 3 32 56 VTop 2
SYMATTR InstName R42
SYMATTR Value 1k
SYMBOL res 16816 224 R90
WINDOW 0 0 56 VBottom 2
WINDOW 3 32 56 VTop 2
SYMATTR InstName R43
SYMATTR Value 20
SYMBOL VCA824 16608 256 R0
SYMATTR InstName U23
SYMATTR Prefix X
SYMATTR SpiceModel VCA824
SYMATTR Value2 VCA824
SYMBOL res 17248 544 M0
SYMATTR InstName R46
SYMATTR Value 1k
SYMBOL cap 17248 720 M0
SYMATTR InstName C1
SYMATTR Value 0.1µ
SYMATTR SpiceLine V=50 Irms=0 Rser=0.09 Lser=0
SYMBOL res 16704 432 R0
SYMATTR InstName R47
SYMATTR Value 4k
SYMBOL cap 16704 608 R0
SYMATTR InstName C2
SYMATTR Value 0.1µ
SYMBOL voltage 2304 -2432 R0
WINDOW 123 0 0 Left 0
WINDOW 39 0 0 Left 0
SYMATTR InstName V8
SYMATTR Value 5V
SYMBOL voltage 2464 -2432 R0
WINDOW 123 0 0 Left 0
WINDOW 39 0 0 Left 0
SYMATTR InstName V12
SYMATTR Value -5V
SYMBOL TL072 14208 -448 R0
SYMATTR InstName U24
SYMBOL res 14256 -560 R90
WINDOW 0 0 56 VBottom 2
WINDOW 3 32 56 VTop 2
SYMATTR InstName R50
SYMATTR Value 10k
SYMBOL res 14064 -416 R90
WINDOW 0 0 56 VBottom 2
WINDOW 3 32 56 VTop 2
SYMATTR InstName R51
SYMATTR Value 10k
SYMBOL res 17904 -80 R90
WINDOW 0 0 56 VBottom 2
WINDOW 3 32 56 VTop 2
SYMATTR InstName R52
SYMATTR Value 100k
SYMBOL res 17904 128 R90
WINDOW 0 0 56 VBottom 2
WINDOW 3 32 56 VTop 2
SYMATTR InstName R53
SYMATTR Value 100k
SYMBOL res 18096 -80 R90
WINDOW 0 0 56 VBottom 2
WINDOW 3 32 56 VTop 2
SYMATTR InstName R54
SYMATTR Value 100k
SYMBOL TL072 18032 64 R0
SYMATTR InstName U25
SYMBOL res 17536 256 R90
WINDOW 0 0 56 VBottom 2
WINDOW 3 32 56 VTop 2
SYMATTR InstName R55
SYMATTR Value 100k
SYMBOL res 21088 -80 R90
WINDOW 0 0 56 VBottom 2
WINDOW 3 32 56 VTop 2
SYMATTR InstName R58
SYMATTR Value 20K